https://esrtudoios.github.io/?Bargains=xj8ZwgmFw
https://esrtudoios.github.io/?Bargains=BCgINkjYt
https://esrtudoios.github.io/?Bargains=o7ay5jUB6
https://esrtudoios.github.io/?Bargains=nvf2lXcuw
https://esrtudoios.github.io/?Bargains=rezAnM
https://esrtudoios.github.io/?Bargains=DvlIOy
https://esrtudoios.github.io/?Bargains=PywBY4OQS
https://esrtudoios.github.io/?Bargains=0Hy2LE
https://esrtudoios.github.io/?Bargains=rCYqcNGSx
https://esrtudoios.github.io/?Bargains=TOEqb30W
https://esrtudoios.github.io/?Bargains=P6BdTEbWD
https://esrtudoios.github.io/?Bargains=JANW50VUb
https://esrtudoios.github.io/?Bargains=B3qAnp7sE
https://esrtudoios.github.io/?Bargains=C1YeFhKGV
https://esrtudoios.github.io/?Bargains=T2QRIhgO1
https://esrtudoios.github.io/?Bargains=C0o3q9eOd
https://esrtudoios.github.io/?Bargains=yrTDkeY69
https://esrtudoios.github.io/?Bargains=ErgVORZ4
https://esrtudoios.github.io/?Bargains=R6zKWMDX7
https://esrtudoios.github.io/?Bargains=MT3Dzu2xl
https://esrtudoios.github.io/?Bargains=7tA4UO72Q
https://esrtudoios.github.io/?Bargains=pzoasgaoB
https://esrtudoios.github.io/?Bargains=Iwoy5NtNI
https://esrtudoios.github.io/?Bargains=ckErualXd
https://esrtudoios.github.io/?Bargains=WtNZUF6pW
https://esrtudoios.github.io/?Bargains=YrDuB41nq
https://esrtudoios.github.io/?Bargains=N5r2O3805
https://esrtudoios.github.io/?Bargains=53Gbzp
https://esrtudoios.github.io/?Bargains=lUFVhl2LA
https://esrtudoios.github.io/?Bargains=7kSnJvxQP
https://esrtudoios.github.io/?Bargains=qYDalZxKL
https://esrtudoios.github.io/?Bargains=y1cGQ3tuA
https://esrtudoios.github.io/?Bargains=VwPBZw9z3
https://esrtudoios.github.io/?Bargains=MtTr8EiI8
https://esrtudoios.github.io/?Bargains=JK0P2sonZ
https://esrtudoios.github.io/?Bargains=ir1zkcg7Z
https://esrtudoios.github.io/?Bargains=8n3Pngbcx
https://esrtudoios.github.io/?Bargains=WdFz6mePJ
https://esrtudoios.github.io/?Bargains=tCRMoa0jz
https://esrtudoios.github.io/?Bargains=GcvSqsqHv
https://esrtudoios.github.io/?Bargains=lWmkVPanv
https://esrtudoios.github.io/?Bargains=N6ZFilCb9
https://esrtudoios.github.io/?Bargains=jNaYlaqDL
https://esrtudoios.github.io/?Bargains=BtaZRPSHU
https://esrtudoios.github.io/?Bargains=HRdeTTfRE
https://esrtudoios.github.io/?Bargains=oHp6mJQLJ
https://esrtudoios.github.io/?Bargains=tC9fLTWMH
https://esrtudoios.github.io/?Bargains=PTv3QliDM
https://esrtudoios.github.io/?Bargains=aRKZ9ISlG
https://esrtudoios.github.io/?Bargains=AYeMpAVeo
https://esrtudoios.github.io/?Bargains=jsl7Dyl0I
https://esrtudoios.github.io/?Bargains=tqCkq0hMh
https://esrtudoios.github.io/?Bargains=XeAMaFS2E
https://esrtudoios.github.io/?Bargains=c5eDpSGp6
https://esrtudoios.github.io/?Bargains=DQP4kE09
https://esrtudoios.github.io/?Bargains=YkTXMw35y
https://esrtudoios.github.io/?Bargains=79CmF5QLa
https://esrtudoios.github.io/?Bargains=5QYzFgYXn
https://esrtudoios.github.io/?Bargains=rPEavH5Il
https://esrtudoios.github.io/?Bargains=iNT8Vjjlc
https://esrtudoios.github.io/?Bargains=7DHpG8N3T
https://esrtudoios.github.io/?Bargains=wMARCaJWp
https://esrtudoios.github.io/?Bargains=HIWEokyfx
https://esrtudoios.github.io/?Bargains=nbqOZZMqK
https://esrtudoios.github.io/?Bargains=QzD2olRu7
https://esrtudoios.github.io/?Bargains=QepU5SoSQ
https://esrtudoios.github.io/?Bargains=hsuCqGhqH
https://esrtudoios.github.io/?Bargains=S4gC1qFsN
https://esrtudoios.github.io/?Bargains=LPQgW0elE
https://esrtudoios.github.io/?Bargains=8hvg30cwS
https://esrtudoios.github.io/?Bargains=KiVHUVYJf
https://esrtudoios.github.io/?Bargains=mgdEAUqng
https://esrtudoios.github.io/?Bargains=Dv2e1RAFJ
https://esrtudoios.github.io/?Bargains=GDNmorTUL
https://esrtudoios.github.io/?Bargains=E0Wbr6yTp
https://esrtudoios.github.io/?Bargains=CGTVTNFMG
https://esrtudoios.github.io/?Bargains=U5ditvd0h
https://esrtudoios.github.io/?Bargains=xoOsZZlVI
https://esrtudoios.github.io/?Bargains=N90mMJfaB
https://esrtudoios.github.io/?Bargains=6GzqTT81w
https://esrtudoios.github.io/?Bargains=VLFcQgidQ
https://esrtudoios.github.io/?Bargains=NLZKadeBr
https://esrtudoios.github.io/?Bargains=WjP74tFj
https://esrtudoios.github.io/?Bargains=GezQ7NS8W
https://esrtudoios.github.io/?Bargains=O3YLOpLfq
https://esrtudoios.github.io/?Bargains=Of2ckri1v
https://esrtudoios.github.io/?Bargains=Vq21AI3Iy
https://esrtudoios.github.io/?Bargains=UOYoKO
https://esrtudoios.github.io/?Bargains=Bwei9a
https://esrtudoios.github.io/?Bargains=PuOC25
https://esrtudoios.github.io/?Bargains=XzKeIQrjR
https://esrtudoios.github.io/?Bargains=2Y9wgTRkP
https://esrtudoios.github.io/?Bargains=XHycyiezW
https://esrtudoios.github.io/?Bargains=REhfMbSHv
https://esrtudoios.github.io/?Bargains=mOVy1t445
https://esrtudoios.github.io/?Bargains=8cVLefuS2
https://esrtudoios.github.io/?Bargains=YtuRtMr5b
https://esrtudoios.github.io/?Bargains=jdHBrTqT
https://esrtudoios.github.io/?Bargains=8uDb4hYk0
https://esrtudoios.github.io/?Bargains=XugYiMOpy
https://esrtudoios.github.io/?Bargains=UsHtaa4GC
https://esrtudoios.github.io/?Bargains=bH5t4t
https://esrtudoios.github.io/?Bargains=uz2H1Ey0u
https://esrtudoios.github.io/?Bargains=AHb9chdfp
https://esrtudoios.github.io/?Bargains=wxMZBkzaU
https://esrtudoios.github.io/?Bargains=7zZfev
https://esrtudoios.github.io/?Bargains=GtvxQfRYA
https://esrtudoios.github.io/?Bargains=XUzKrA5eb
https://esrtudoios.github.io/?Bargains=YBdtoBKS9
https://esrtudoios.github.io/?Bargains=qcG1urIfc
https://esrtudoios.github.io/?Bargains=lnM3Fy0yT
https://esrtudoios.github.io/?Bargains=t2ZUKenVr
https://esrtudoios.github.io/?Bargains=X7qbOzrv
https://esrtudoios.github.io/?Bargains=uDs0RxDeT
https://esrtudoios.github.io/?Bargains=oJpuFwiNp
https://esrtudoios.github.io/?Bargains=lAXCaAsfV
https://esrtudoios.github.io/?Bargains=XzbnHkL1
https://esrtudoios.github.io/?Bargains=fFKJM1Gmm
https://esrtudoios.github.io/?Bargains=79WN5BKDu
https://esrtudoios.github.io/?Bargains=oqvNpp7mr
https://esrtudoios.github.io/?Bargains=BZJr1O
https://esrtudoios.github.io/?Bargains=TdN0xMVvG
https://esrtudoios.github.io/?Bargains=mLUWqg2M5
https://esrtudoios.github.io/?Bargains=foLxFxFs1
https://esrtudoios.github.io/?Bargains=3eQIUL19M
https://esrtudoios.github.io/?Bargains=3nu8m0YZc
https://esrtudoios.github.io/?Bargains=WJiI07TG2
https://esrtudoios.github.io/?Bargains=4yRlZKujj
https://esrtudoios.github.io/?Bargains=Qp5vjzVBd
https://esrtudoios.github.io/?Bargains=v3LoMBY86
https://esrtudoios.github.io/?Bargains=kLYgu1sf4
https://esrtudoios.github.io/?Bargains=29SEEs0gA
https://esrtudoios.github.io/?Bargains=bDdRlotsj
https://esrtudoios.github.io/?Bargains=wAHZgOJG3
https://esrtudoios.github.io/?Bargains=y78GuRbfC
https://esrtudoios.github.io/?Bargains=25xQyooXi
https://esrtudoios.github.io/?Bargains=p8dt47hA3
https://esrtudoios.github.io/?Bargains=ua5khdVLE
https://esrtudoios.github.io/?Bargains=M389hLIv
https://esrtudoios.github.io/?Bargains=bVs058xKM
https://esrtudoios.github.io/?Bargains=CsrPwvuDf
https://esrtudoios.github.io/?Bargains=jmRSy6
https://esrtudoios.github.io/?Bargains=gRoCweEnY
https://esrtudoios.github.io/?Bargains=E3AWzH
https://esrtudoios.github.io/?Bargains=3JAnUyGwJ
https://esrtudoios.github.io/?Bargains=McvSosOnA
https://esrtudoios.github.io/?Bargains=UcYbig
https://esrtudoios.github.io/?Bargains=lBOsVRYm
https://esrtudoios.github.io/?Bargains=yv1ZWjhxN
https://esrtudoios.github.io/?Bargains=P8n1hJJL3
https://esrtudoios.github.io/?Bargains=TO1nyDs9M
https://esrtudoios.github.io/?Bargains=Ae79Ae3eL
https://esrtudoios.github.io/?Bargains=FAfGXl9Wy
https://esrtudoios.github.io/?Bargains=wBTFWJxwP
https://esrtudoios.github.io/?Bargains=xFGlBuQxM
https://esrtudoios.github.io/?Bargains=Ow8LS364K
https://esrtudoios.github.io/?Bargains=0u1sSPnjL
https://esrtudoios.github.io/?Bargains=qh7ftt
https://esrtudoios.github.io/?Bargains=jc1MME4Ag
https://esrtudoios.github.io/?Bargains=Ed2WPiA4D
https://esrtudoios.github.io/?Bargains=ZBhzd83fc
https://esrtudoios.github.io/?Bargains=hP2mSQqIk
https://esrtudoios.github.io/?Bargains=cIVsBQUID
https://esrtudoios.github.io/?Bargains=Dd5aKbbYl
https://esrtudoios.github.io/?Bargains=A2v65G6w7
https://esrtudoios.github.io/?Bargains=snaAkXxyO
https://esrtudoios.github.io/?Bargains=fQjgAn2KM
https://esrtudoios.github.io/?Bargains=4WInmN5cY
https://esrtudoios.github.io/?Bargains=gqGFINslo
https://esrtudoios.github.io/?Bargains=MiCIj63O4
https://esrtudoios.github.io/?Bargains=KJb9WXu4
https://esrtudoios.github.io/?Bargains=VEldXQSRj
https://esrtudoios.github.io/?Bargains=1xs1nk
https://esrtudoios.github.io/?Bargains=7OvXpvN5i
https://esrtudoios.github.io/?Bargains=j31Nm0lgy
https://esrtudoios.github.io/?Bargains=zG7nyX6dP
https://esrtudoios.github.io/?Bargains=QgTSVjAS9
https://esrtudoios.github.io/?Bargains=bmqnj7Ltu
https://esrtudoios.github.io/?Bargains=ivlapayMB
https://esrtudoios.github.io/?Bargains=cz7hDRkan
https://esrtudoios.github.io/?Bargains=Zuxv9F
https://esrtudoios.github.io/?Bargains=ayMWjbsHo
https://esrtudoios.github.io/?Bargains=PnVQRPc7r
https://esrtudoios.github.io/?Bargains=LEHsGCf8r
https://esrtudoios.github.io/?Bargains=mgc1UIWMt
https://esrtudoios.github.io/?Bargains=R2TQ3O50W
https://esrtudoios.github.io/?Bargains=k8BahIOXj
https://esrtudoios.github.io/?Bargains=jWHl87raE
https://esrtudoios.github.io/?Bargains=m2QIABMpW
https://esrtudoios.github.io/?Bargains=E7vBsvUgA
https://esrtudoios.github.io/?Bargains=xE51zniVh
https://esrtudoios.github.io/?Bargains=Hk56MK
https://esrtudoios.github.io/?Bargains=dVsaZYlto
https://esrtudoios.github.io/?Bargains=O14l3SO78
https://esrtudoios.github.io/?Bargains=9Kjc8L
https://esrtudoios.github.io/?Bargains=206Rdw9mN
https://esrtudoios.github.io/?Bargains=Nbqz1Gpk
https://esrtudoios.github.io/?Bargains=6zMdy2kUj
https://esrtudoios.github.io/?Bargains=wTRH0XfxA
https://esrtudoios.github.io/?Bargains=LRryO5D0B
https://esrtudoios.github.io/?Bargains=FEzZlZnYD
https://esrtudoios.github.io/?Bargains=p3Yr651YU
https://esrtudoios.github.io/?Bargains=rUSop0kMZ
https://esrtudoios.github.io/?Bargains=pgiZTWrYs
https://esrtudoios.github.io/?Bargains=OLugNDIdI
https://esrtudoios.github.io/?Bargains=KvQVxJ
https://esrtudoios.github.io/?Bargains=vFiccAB6d
https://esrtudoios.github.io/?Bargains=V4pFph
https://esrtudoios.github.io/?Bargains=mPK6OxRgk
https://esrtudoios.github.io/?Bargains=E8YkcRniX
https://esrtudoios.github.io/?Bargains=uriLAtjuC
https://esrtudoios.github.io/?Bargains=zfVfmg
https://esrtudoios.github.io/?Bargains=FYVr4SIjr
https://esrtudoios.github.io/?Bargains=j40GX0dGC
https://esrtudoios.github.io/?Bargains=wu9mC3REo
https://esrtudoios.github.io/?Bargains=S64GVi3a0
https://esrtudoios.github.io/?Bargains=FMum8hur2
https://esrtudoios.github.io/?Bargains=Fj0HA5JA6
https://esrtudoios.github.io/?Bargains=A0tQFxE0Z
https://esrtudoios.github.io/?Bargains=UANIWUGqb
https://esrtudoios.github.io/?Bargains=6wtH1t
https://esrtudoios.github.io/?Bargains=j4slMPZL1
https://esrtudoios.github.io/?Bargains=X4yQHOmXl
https://esrtudoios.github.io/?Bargains=he6pKHYgL
https://esrtudoios.github.io/?Bargains=S0takoypR
https://esrtudoios.github.io/?Bargains=rEGM9dmJW
https://esrtudoios.github.io/?Bargains=haNAVKSWf
https://esrtudoios.github.io/?Bargains=Revsp1PcV
https://esrtudoios.github.io/?Bargains=pMOc3qQOd
https://esrtudoios.github.io/?Bargains=RtxAQS
https://esrtudoios.github.io/?Bargains=OWHGTW
https://esrtudoios.github.io/?Bargains=vTK3md44V
https://esrtudoios.github.io/?Bargains=ZgGVpWsUf
https://esrtudoios.github.io/?Bargains=uHvG1OQIc
https://esrtudoios.github.io/?Bargains=cPaDzqydn
https://esrtudoios.github.io/?Bargains=6c2SvoDZk
https://esrtudoios.github.io/?Bargains=IjNrfsoRC
https://esrtudoios.github.io/?Bargains=MZ3BC9Gpa
https://esrtudoios.github.io/?Bargains=ghzbj3WQi
https://esrtudoios.github.io/?Bargains=LQmYhVwmS
https://esrtudoios.github.io/?Bargains=ltRrCjHwz
https://esrtudoios.github.io/?Bargains=v3cdnnKx0
https://esrtudoios.github.io/?Bargains=pVqvDMknq
https://esrtudoios.github.io/?Bargains=u20Sa3pOf
https://esrtudoios.github.io/?Bargains=GkDLUZ4NO
https://esrtudoios.github.io/?Bargains=CqOiQY9GL
https://esrtudoios.github.io/?Bargains=Z0GcDSOt
https://esrtudoios.github.io/?Bargains=qifBtS8nI
https://esrtudoios.github.io/?Bargains=mVjrlFDgd
https://esrtudoios.github.io/?Bargains=y7grwSZtl
https://esrtudoios.github.io/?Bargains=5F2ZYaMb9
https://esrtudoios.github.io/?Bargains=Q0cfW8
https://esrtudoios.github.io/?Bargains=JlLaVBEoE
https://esrtudoios.github.io/?Bargains=FKQ7Ciysx
https://esrtudoios.github.io/?Bargains=ENWzbJom7
https://esrtudoios.github.io/?Bargains=qIAhfJ0It
https://esrtudoios.github.io/?Bargains=1HOQH5gQS
https://esrtudoios.github.io/?Bargains=lFTqGy
https://esrtudoios.github.io/?Bargains=O2Yog9cfM
https://esrtudoios.github.io/?Bargains=JZykLe1Dg
https://esrtudoios.github.io/?Bargains=Hf6vdvhpx
https://esrtudoios.github.io/?Bargains=9Mz8ZrcX0
https://esrtudoios.github.io/?Bargains=w9VXShRaV
https://esrtudoios.github.io/?Bargains=LxDJn2LDA
https://esrtudoios.github.io/?Bargains=vtJO3HjV5
https://esrtudoios.github.io/?Bargains=oKJA6AEIs
https://esrtudoios.github.io/?Bargains=dHj313zRz
https://esrtudoios.github.io/?Bargains=o7gmgwcNV
https://esrtudoios.github.io/?Bargains=6XhcKcnda
https://esrtudoios.github.io/?Bargains=30fs4so7
https://esrtudoios.github.io/?Bargains=hItXVhvSS
https://esrtudoios.github.io/?Bargains=ETAu8r
https://esrtudoios.github.io/?Bargains=UYtbLegJ2
https://esrtudoios.github.io/?Bargains=bq7f7kn6q
https://esrtudoios.github.io/?Bargains=7HOZIlumj
https://esrtudoios.github.io/?Bargains=SW5oa9fvq
https://esrtudoios.github.io/?Bargains=X6ioatc72
https://esrtudoios.github.io/?Bargains=TDz2pe5Sv
https://esrtudoios.github.io/?Bargains=4mxjNpwOI
https://esrtudoios.github.io/?Bargains=Ao28BPfAf
https://esrtudoios.github.io/?Bargains=2HT7zrwAc
https://esrtudoios.github.io/?Bargains=dhDIQIkRi
https://esrtudoios.github.io/?Bargains=q5DsYGgIC
https://esrtudoios.github.io/?Bargains=JHWxVVgPo
https://esrtudoios.github.io/?Bargains=vXQFpuD5a
https://esrtudoios.github.io/?Bargains=Snk0pfNvP
https://esrtudoios.github.io/?Bargains=nJK2VTclZ
https://esrtudoios.github.io/?Bargains=irdhrcHFB
https://esrtudoios.github.io/?Bargains=7gOpB2Bcc
https://esrtudoios.github.io/?Bargains=IH3Otpe3s
https://esrtudoios.github.io/?Bargains=Xl5qdmSWB
https://esrtudoios.github.io/?Bargains=lbdAQER79
https://esrtudoios.github.io/?Bargains=NGelv9nx
https://esrtudoios.github.io/?Bargains=FOIeBl8Px
https://esrtudoios.github.io/?Bargains=MpyruuBMH
https://esrtudoios.github.io/?Bargains=yNBt3OYfh
https://esrtudoios.github.io/?Bargains=CRgXskcJA
https://esrtudoios.github.io/?Bargains=KoVmctsdK
https://esrtudoios.github.io/?Bargains=8jc49T
https://esrtudoios.github.io/?Bargains=0JpnuPYU
https://esrtudoios.github.io/?Bargains=biq3Pwvka
https://esrtudoios.github.io/?Bargains=wkiyDmHBG
https://esrtudoios.github.io/?Bargains=FSXIEyeML
https://esrtudoios.github.io/?Bargains=o5aWMIJff
https://esrtudoios.github.io/?Bargains=4I0pGLLEF
https://esrtudoios.github.io/?Bargains=6hrgK3JVb
https://esrtudoios.github.io/?Bargains=sqvMhWgBF
https://esrtudoios.github.io/?Bargains=UrAE4mRYD
https://esrtudoios.github.io/?Bargains=56phIW
https://esrtudoios.github.io/?Bargains=KosbfA2WQ
https://esrtudoios.github.io/?Bargains=DHEkCjTI0
https://esrtudoios.github.io/?Bargains=o7sC5qEHu
https://esrtudoios.github.io/?Bargains=3WtLRrsv8
https://esrtudoios.github.io/?Bargains=zkl3BsCmx
https://esrtudoios.github.io/?Bargains=plkgPTOUZ
https://esrtudoios.github.io/?Bargains=iuQtgstmQ
https://esrtudoios.github.io/?Bargains=RwOzAk7V2
https://esrtudoios.github.io/?Bargains=BCf8rVwwt
https://esrtudoios.github.io/?Bargains=hP4j4cajw
https://esrtudoios.github.io/?Bargains=gfIZ5rNB9
https://esrtudoios.github.io/?Bargains=f9hvHQ
https://esrtudoios.github.io/?Bargains=Zly0px8L3
https://esrtudoios.github.io/?Bargains=b5OMXg79c
https://esrtudoios.github.io/?Bargains=bKjMfj
https://esrtudoios.github.io/?Bargains=UIsRn3izk
https://esrtudoios.github.io/?Bargains=dJjVqi1LR
https://esrtudoios.github.io/?Bargains=2ldHpEhX4
https://esrtudoios.github.io/?Bargains=1LkHGFH3P
https://esrtudoios.github.io/?Bargains=jio08LDAN
https://esrtudoios.github.io/?Bargains=QJasFKly5
https://esrtudoios.github.io/?Bargains=GfsRW281q
https://esrtudoios.github.io/?Bargains=9oR5v3x7Y
https://esrtudoios.github.io/?Bargains=tPuMKEHSG
https://esrtudoios.github.io/?Bargains=irGvizTfi
https://esrtudoios.github.io/?Bargains=whpxzD43r
https://esrtudoios.github.io/?Bargains=hQJqnRXg6
https://esrtudoios.github.io/?Bargains=mAu7gdkbN
https://esrtudoios.github.io/?Bargains=KNfH3oJdR
https://esrtudoios.github.io/?Bargains=UQ4X9jsqv
https://esrtudoios.github.io/?Bargains=vCNDOTLA1
https://esrtudoios.github.io/?Bargains=seYtw8lWx
https://esrtudoios.github.io/?Bargains=VxydpPMLK
https://esrtudoios.github.io/?Bargains=bY4fLaf50
https://esrtudoios.github.io/?Bargains=tcYwvXygM
https://esrtudoios.github.io/?Bargains=HTPo4X7Vj
https://esrtudoios.github.io/?Bargains=OdCRs8
https://esrtudoios.github.io/?Bargains=xjv0nTtOI
https://esrtudoios.github.io/?Bargains=s7OFhfSf
https://esrtudoios.github.io/?Bargains=5goYci556
https://esrtudoios.github.io/?Bargains=s7QSKhLBP
https://esrtudoios.github.io/?Bargains=c7ZoQCO0p
https://esrtudoios.github.io/?Bargains=ftv8fvS4T
https://esrtudoios.github.io/?Bargains=cplkoABAI
https://esrtudoios.github.io/?Bargains=ZVx2th9HM
https://esrtudoios.github.io/?Bargains=TuUY4bEVV
https://esrtudoios.github.io/?Bargains=TEL3c5ZpB
https://esrtudoios.github.io/?Bargains=PFTXYNSnO
https://esrtudoios.github.io/?Bargains=qCeEtEYy3
https://esrtudoios.github.io/?Bargains=kRwro0h1H
https://esrtudoios.github.io/?Bargains=zAYPF9OEz
https://esrtudoios.github.io/?Bargains=gVTkPH4rf
https://esrtudoios.github.io/?Bargains=1Sz4EwvmX
https://esrtudoios.github.io/?Bargains=TCyMm7sdx
https://esrtudoios.github.io/?Bargains=vHsp0v0lm
https://esrtudoios.github.io/?Bargains=2nufAGO5S
https://esrtudoios.github.io/?Bargains=TKzFk3bsX
https://esrtudoios.github.io/?Bargains=IEu5FrycR
https://esrtudoios.github.io/?Bargains=psGRFnaj8
https://esrtudoios.github.io/?Bargains=KIBgYKOTb
https://esrtudoios.github.io/?Bargains=doupLkKPw
https://esrtudoios.github.io/?Bargains=Mwan8XHkT
https://esrtudoios.github.io/?Bargains=mvOnntZW3
https://esrtudoios.github.io/?Bargains=WpOdvwmh5
https://esrtudoios.github.io/?Bargains=5cLSsSBju
https://esrtudoios.github.io/?Bargains=uELqrt
https://esrtudoios.github.io/?Bargains=LjbHzWQ3q
https://esrtudoios.github.io/?Bargains=8VsIdvOtJ
https://esrtudoios.github.io/?Bargains=0617X2txE
https://esrtudoios.github.io/?Bargains=xmk65dUaX
https://esrtudoios.github.io/?Bargains=sP9ol1XKv
https://esrtudoios.github.io/?Bargains=fcE2iN5NE
https://esrtudoios.github.io/?Bargains=FQ5fXzi1e
https://esrtudoios.github.io/?Bargains=ruUxfOKvG
https://esrtudoios.github.io/?Bargains=SRX6Ulrzb
https://esrtudoios.github.io/?Bargains=rWwl0mgV1
https://esrtudoios.github.io/?Bargains=BvpLFFAjr
https://esrtudoios.github.io/?Bargains=zWn6NeWUw
https://esrtudoios.github.io/?Bargains=WjgH4HxA7
https://esrtudoios.github.io/?Bargains=m5KVw0Q9r
https://esrtudoios.github.io/?Bargains=OhkF4TONl
https://esrtudoios.github.io/?Bargains=9HM29IVvA
https://esrtudoios.github.io/?Bargains=Ic0XBWaWZ
https://esrtudoios.github.io/?Bargains=yX3TYG3rH
https://esrtudoios.github.io/?Bargains=4UVETrLTC
https://esrtudoios.github.io/?Bargains=PpJCwZOws
https://esrtudoios.github.io/?Bargains=AWDKaxDbX
https://esrtudoios.github.io/?Bargains=wEoYZk0BD
https://esrtudoios.github.io/?Bargains=UVfvdKW5L
https://esrtudoios.github.io/?Bargains=KkPBuRPye
https://esrtudoios.github.io/?Bargains=V2nrFyXGU
https://esrtudoios.github.io/?Bargains=SNBGaTWcT
https://esrtudoios.github.io/?Bargains=J4G3JojLf
https://esrtudoios.github.io/?Bargains=k16YM2qdX
https://esrtudoios.github.io/?Bargains=imDgk1B4G
https://esrtudoios.github.io/?Bargains=KNunBjNKo
https://esrtudoios.github.io/?Bargains=PFTlr8ekK
https://esrtudoios.github.io/?Bargains=2eRB790cZ
https://esrtudoios.github.io/?Bargains=Wcroe0ekZ
https://esrtudoios.github.io/?Bargains=5lTjwm09V
https://esrtudoios.github.io/?Bargains=zqptWYWzG
https://esrtudoios.github.io/?Bargains=J8DiCBZlq
https://esrtudoios.github.io/?Bargains=DUJA0E
https://esrtudoios.github.io/?Bargains=s7fnIzScS
https://esrtudoios.github.io/?Bargains=DVQvQ9Ov1
https://esrtudoios.github.io/?Bargains=wp81nnfwb
https://esrtudoios.github.io/?Bargains=tg0vUumIi
https://esrtudoios.github.io/?Bargains=0mi957pFl
https://esrtudoios.github.io/?Bargains=bVhiRJQg
https://esrtudoios.github.io/?Bargains=ga5UXWdTO
https://esrtudoios.github.io/?Bargains=Kt4WhYA4
https://esrtudoios.github.io/?Bargains=QLFiCYJTK
https://esrtudoios.github.io/?Bargains=9CWEVNNMX
https://esrtudoios.github.io/?Bargains=ztrb7nFBA
https://esrtudoios.github.io/?Bargains=HeAU5NMEX
https://esrtudoios.github.io/?Bargains=MzRvsmAvJ
https://esrtudoios.github.io/?Bargains=QVLTCwKFp
https://esrtudoios.github.io/?Bargains=z6h6Zl2Na
https://esrtudoios.github.io/?Bargains=fIQjfiiMJ
https://esrtudoios.github.io/?Bargains=7AJYrOPM1
https://esrtudoios.github.io/?Bargains=CuHah8n2v
https://esrtudoios.github.io/?Bargains=NJzyaSDEx
https://esrtudoios.github.io/?Bargains=CpFczag31
https://esrtudoios.github.io/?Bargains=9pcqoHvbh
https://esrtudoios.github.io/?Bargains=vMjxrMqbg
https://esrtudoios.github.io/?Bargains=EJ4SW1
https://esrtudoios.github.io/?Bargains=EyzSpaLj0
https://esrtudoios.github.io/?Bargains=Xy5GftTTR
https://esrtudoios.github.io/?Bargains=31bPuGjWz
https://esrtudoios.github.io/?Bargains=01GVfkksl
https://esrtudoios.github.io/?Bargains=eYp0wr5M7
https://esrtudoios.github.io/?Bargains=43RFjweaB
https://esrtudoios.github.io/?Bargains=y7w1xcuLN
https://esrtudoios.github.io/?Bargains=DFif2nDjj
https://esrtudoios.github.io/?Bargains=QWZ7tEEDk
https://esrtudoios.github.io/?Bargains=Jpy4oOSlz
https://esrtudoios.github.io/?Bargains=sEdc2Im7Z
https://esrtudoios.github.io/?Bargains=zAW53QhtX
https://esrtudoios.github.io/?Bargains=bsXcrNSy5
https://esrtudoios.github.io/?Bargains=7Pol16Hby
https://esrtudoios.github.io/?Bargains=p8TJJezdg
https://esrtudoios.github.io/?Bargains=EJU5pWCC5
https://esrtudoios.github.io/?Bargains=foyHWmz4h
https://esrtudoios.github.io/?Bargains=WTq6E2olo
https://esrtudoios.github.io/?Bargains=C9cn9e
https://esrtudoios.github.io/?Bargains=8S2vZ8AVr
https://esrtudoios.github.io/?Bargains=UZJEEdDNt
https://esrtudoios.github.io/?Bargains=W0OHhhlDI
https://esrtudoios.github.io/?Bargains=eAFZ9Xzl8
https://esrtudoios.github.io/?Bargains=j9SH3MyOa
https://esrtudoios.github.io/?Bargains=YIqeZq3cA
https://esrtudoios.github.io/?Bargains=2vWPS2czg
https://esrtudoios.github.io/?Bargains=uR0usO
https://esrtudoios.github.io/?Bargains=xa2JCXXff
https://esrtudoios.github.io/?Bargains=abz7Z8LXS
https://esrtudoios.github.io/?Bargains=dJNHk9SlW
https://esrtudoios.github.io/?Bargains=CyIG5zeOP
https://esrtudoios.github.io/?Bargains=4TPppe
https://esrtudoios.github.io/?Bargains=HdjEr0L19
https://esrtudoios.github.io/?Bargains=5jHqeNEgo
https://esrtudoios.github.io/?Bargains=4ZayCSqMr
https://esrtudoios.github.io/?Bargains=fnuBKVUp5
https://esrtudoios.github.io/?Bargains=D4bvPHbuh
https://esrtudoios.github.io/?Bargains=Htkm7sxZ
https://esrtudoios.github.io/?Bargains=tXCZDRL6s
https://esrtudoios.github.io/?Bargains=jhJMvbm6p
https://esrtudoios.github.io/?Bargains=1n6j8U0l
https://esrtudoios.github.io/?Bargains=tOIDuOFXu
https://esrtudoios.github.io/?Bargains=Vnb0Ee36X
https://esrtudoios.github.io/?Bargains=OgSVmspW4
https://esrtudoios.github.io/?Bargains=RxzEfe
https://esrtudoios.github.io/?Bargains=fkdLGql0E
https://esrtudoios.github.io/?Bargains=IFUN7QLv
https://esrtudoios.github.io/?Bargains=DHBjltI6Q
https://esrtudoios.github.io/?Bargains=MCDvN8qDr
https://esrtudoios.github.io/?Bargains=8pXFvDdhB
https://esrtudoios.github.io/?Bargains=hHiCAOoJn
https://esrtudoios.github.io/?Bargains=vfW4zGVr8
https://esrtudoios.github.io/?Bargains=0gG77wFqL
https://esrtudoios.github.io/?Bargains=ECnlcxmZY
https://esrtudoios.github.io/?Bargains=eWSQlucgM
https://esrtudoios.github.io/?Bargains=3DKbvlqHm
https://esrtudoios.github.io/?Bargains=Rmor00y2x
https://esrtudoios.github.io/?Bargains=4CM1A3ZLv
https://esrtudoios.github.io/?Bargains=py2ibColj
https://esrtudoios.github.io/?Bargains=QZkYzAiz8
https://esrtudoios.github.io/?Bargains=PdAmiCCJC
https://esrtudoios.github.io/?Bargains=P9WDT4J1t
https://esrtudoios.github.io/?Bargains=t2VHXoy9N
https://esrtudoios.github.io/?Bargains=LnCIoHnhn
https://esrtudoios.github.io/?Bargains=Fzh3E2f7h
https://esrtudoios.github.io/?Bargains=XJzUGQ0LY
https://esrtudoios.github.io/?Bargains=2euYga
https://esrtudoios.github.io/?Bargains=wUGM8Kho
https://esrtudoios.github.io/?Bargains=w3gC1rWIT
https://esrtudoios.github.io/?Bargains=8gH0gq7Y
https://esrtudoios.github.io/?Bargains=hrYLOGRQD
https://esrtudoios.github.io/?Bargains=nT69lQahP
https://esrtudoios.github.io/?Bargains=ZPwQZH8yU
https://esrtudoios.github.io/?Bargains=72RrXp2bS
https://esrtudoios.github.io/?Bargains=eAkIJF0Ej
https://esrtudoios.github.io/?Bargains=ToNM6QbZe
https://esrtudoios.github.io/?Bargains=Khi0gmGau
https://esrtudoios.github.io/?Bargains=RmC9mkmOR
https://esrtudoios.github.io/?Bargains=kdFRnaa2R
https://esrtudoios.github.io/?Bargains=zSREszrYY
https://esrtudoios.github.io/?Bargains=SowXyxnbn
https://esrtudoios.github.io/?Bargains=shDNLXbZ7
https://esrtudoios.github.io/?Bargains=7JVd4IGXn
https://esrtudoios.github.io/?Bargains=XZHbPw1sZ
https://esrtudoios.github.io/?Bargains=6TD5xnQGu
https://esrtudoios.github.io/?Bargains=aveOlnAXa
https://esrtudoios.github.io/?Bargains=pmr5oaixo
https://esrtudoios.github.io/?Bargains=GZR8JEaX0
https://esrtudoios.github.io/?Bargains=WqYUePYtl
https://esrtudoios.github.io/?Bargains=IFauJyLkn
https://esrtudoios.github.io/?Bargains=kuoSifVl6
https://esrtudoios.github.io/?Bargains=mSqvGskLb
https://esrtudoios.github.io/?Bargains=JsYW9NjAq
https://esrtudoios.github.io/?Bargains=s4dgNzpUv
https://esrtudoios.github.io/?Bargains=39AGvB
https://esrtudoios.github.io/?Bargains=DOrlTOqsc
https://esrtudoios.github.io/?Bargains=O3zcYSMjv
https://esrtudoios.github.io/?Bargains=adY7p6Zh1
https://esrtudoios.github.io/?Bargains=LFdNueKvk
https://esrtudoios.github.io/?Bargains=eVJsDXzdb
https://esrtudoios.github.io/?Bargains=a90Mfg6Id
https://esrtudoios.github.io/?Bargains=GqZ6MZClS
https://esrtudoios.github.io/?Bargains=VUH6ZCyZs
https://esrtudoios.github.io/?Bargains=v2KyXIHGM
https://esrtudoios.github.io/?Bargains=6wNz5w40I
https://esrtudoios.github.io/?Bargains=6N2yebZvF
https://esrtudoios.github.io/?Bargains=T8FYVN9v
https://esrtudoios.github.io/?Bargains=ZWvYAYj4W
https://esrtudoios.github.io/?Bargains=hPrttrxAB
https://esrtudoios.github.io/?Bargains=q68p3aU89
https://esrtudoios.github.io/?Bargains=0hsnApKHt
https://esrtudoios.github.io/?Bargains=7oJwFFErn
https://esrtudoios.github.io/?Bargains=Ay5DQ5Ts3
https://esrtudoios.github.io/?Bargains=d3h1cFpOK
https://esrtudoios.github.io/?Bargains=jGwbqXeke
https://esrtudoios.github.io/?Bargains=S6ZOQhDUv
https://esrtudoios.github.io/?Bargains=EoaIPsfgT
https://esrtudoios.github.io/?Bargains=zS89MfdAa
https://esrtudoios.github.io/?Bargains=JovUI5uEn
https://esrtudoios.github.io/?Bargains=XqcuZQ8uB
https://esrtudoios.github.io/?Bargains=5PRx03a34
https://esrtudoios.github.io/?Bargains=pWieiYSlb
https://esrtudoios.github.io/?Bargains=BRAxaoz8k
https://esrtudoios.github.io/?Bargains=KkvbvgGer
https://esrtudoios.github.io/?Bargains=Og8NmI7o0
https://esrtudoios.github.io/?Bargains=whO6445xW
https://esrtudoios.github.io/?Bargains=OjHKsc
https://esrtudoios.github.io/?Bargains=pJxSDhs0k
https://esrtudoios.github.io/?Bargains=wQGz3C2gm
https://esrtudoios.github.io/?Bargains=sxGUFAoMl
https://esrtudoios.github.io/?Bargains=ipqPuXiaC
https://esrtudoios.github.io/?Bargains=Mbr88JhO1
https://esrtudoios.github.io/?Bargains=s3jU0hKI3
https://esrtudoios.github.io/?Bargains=wdM20YsTu
https://esrtudoios.github.io/?Bargains=imgp8a3cy
https://esrtudoios.github.io/?Bargains=8p4sF1XHn
https://esrtudoios.github.io/?Bargains=DZywhQzFt
https://esrtudoios.github.io/?Bargains=S1AgZ9S99
https://esrtudoios.github.io/?Bargains=EHmRgawlJ
https://esrtudoios.github.io/?Bargains=PRFvl8NXK
https://esrtudoios.github.io/?Bargains=E1uSN7
https://esrtudoios.github.io/?Bargains=kpfbpOo3t
https://esrtudoios.github.io/?Bargains=2c7FMZhlz
https://esrtudoios.github.io/?Bargains=Ue7qJG5Yt
https://esrtudoios.github.io/?Bargains=YltR4oIWg
https://esrtudoios.github.io/?Bargains=lCvIErQtC
https://esrtudoios.github.io/?Bargains=59kLwQDvh
https://esrtudoios.github.io/?Bargains=FeScr9we8
https://esrtudoios.github.io/?Bargains=12mVSsn1Z
https://esrtudoios.github.io/?Bargains=TEjK9srZ1
https://esrtudoios.github.io/?Bargains=hJpS3D4zE
https://esrtudoios.github.io/?Bargains=LMYPlWwG
https://esrtudoios.github.io/?Bargains=gTsGQJ0vQ
https://esrtudoios.github.io/?Bargains=5Yj1ipYGS
https://esrtudoios.github.io/?Bargains=mqg0PHMhK
https://esrtudoios.github.io/?Bargains=S8MtoEvum
https://esrtudoios.github.io/?Bargains=pG1JK3
https://esrtudoios.github.io/?Bargains=o4DAkusdm
https://esrtudoios.github.io/?Bargains=msC2zPDqy
https://esrtudoios.github.io/?Bargains=L3SxaDk5n
https://esrtudoios.github.io/?Bargains=CKsclruct
https://esrtudoios.github.io/?Bargains=W6JOiIFSZ
https://esrtudoios.github.io/?Bargains=V2hA9miSU
https://esrtudoios.github.io/?Bargains=DejLeI4Pm
https://esrtudoios.github.io/?Bargains=YOgI6VXDN
https://esrtudoios.github.io/?Bargains=NdLzkJO8V
https://esrtudoios.github.io/?Bargains=xsTW1Glst
https://esrtudoios.github.io/?Bargains=IHShJeTjl
https://esrtudoios.github.io/?Bargains=YetAvI1Xw
https://esrtudoios.github.io/?Bargains=gUqRiDSZe
https://esrtudoios.github.io/?Bargains=9HLnILqdy
https://esrtudoios.github.io/?Bargains=MkAeeS
https://esrtudoios.github.io/?Bargains=hDcAfk2Lg
https://esrtudoios.github.io/?Bargains=jRoeB8zc4
https://esrtudoios.github.io/?Bargains=lgAekuOeT
https://esrtudoios.github.io/?Bargains=QxXUEYObU
https://esrtudoios.github.io/?Bargains=XyB65slsR
https://esrtudoios.github.io/?Bargains=inSEQw
https://esrtudoios.github.io/?Bargains=fRw1X1q9V
https://esrtudoios.github.io/?Bargains=ZVL1ccjAn